    6
    6
C      1.747   1.425  -1.347
C      8.621   0.722   5.948
C     13.656  -0.136  12.120
C     17.492   0.772  13.880
C     22.967   0.692  18.647
C     33.845   0.607  30.631
    6
    6
C      1.747   1.431  -1.339
C      8.631   0.726   5.938
C     13.658  -0.164  12.121
C     17.510   0.779  13.862
C     22.970   0.681  18.647
C     33.837   0.615  30.624
    6
    6
C      1.747   1.441  -1.328
C      8.644   0.731   5.927
C     13.665  -0.196  12.122
C     17.534   0.783  13.832
C     22.973   0.674  18.649
C     33.829   0.627  30.618
    6
    6
C      1.745   1.448  -1.322
C      8.656   0.735   5.919
C     13.672  -0.215  12.121
C     17.552   0.779  13.804
C     22.972   0.673  18.651
C     33.824   0.637  30.614
    6
    6
C      1.742   1.457  -1.308
C      8.683   0.742   5.908
C     13.695  -0.241  12.119
C     17.584   0.767  13.751
C     22.974   0.676  18.656
C     33.819   0.659  30.613
    6
    6
C      1.738   1.461  -1.302
C      8.697   0.741   5.904
C     13.709  -0.253  12.117
C     17.595   0.767  13.729
C     22.975   0.679  18.660
C     33.817   0.667  30.610
    6
    6
C      1.732   1.465  -1.294
C      8.713   0.743   5.899
C     13.724  -0.266  12.115
C     17.607   0.772  13.710
C     22.975   0.683  18.666
C     33.816   0.672  30.603
    6
    6
C      1.730   1.466  -1.291
C      8.719   0.744   5.897
C     13.729  -0.271  12.115
C     17.612   0.775  13.704
C     22.975   0.685  18.668
C     33.817   0.674  30.601
    6
    6
C      1.719   1.474  -1.277
C      8.747   0.749   5.888
C     13.749  -0.291  12.112
C     17.636   0.787  13.686
C     22.974   0.692  18.677
C     33.819   0.680  30.590
    6
    6
C      1.716   1.476  -1.273
C      8.752   0.751   5.885
C     13.753  -0.295  12.112
C     17.642   0.788  13.686
C     22.974   0.694  18.679
C     33.821   0.680  30.588
    6
    6
C      1.672   1.509  -1.220
C      8.830   0.774   5.847
C     13.803  -0.336  12.102
C     17.737   0.809  13.677
C     22.966   0.725  18.711
C     33.837   0.688  30.551
    6
    6
C      1.580   1.558  -1.074
C      8.935   0.825   5.750
C     13.934  -0.355  12.025
C     17.943   0.840  13.630
C     22.945   0.844  18.749
C     33.825   0.736  30.455
    6
    6
C      1.563   1.565  -0.936
C      9.056   0.869   5.697
C     14.134  -0.261  11.806
C     18.037   0.819  13.449
C     22.919   1.004  18.782
C     33.821   0.786  30.348
    6
    6
C      1.530   1.552  -0.837
C      9.118   0.928   5.664
C     14.219  -0.203  11.660
C     18.116   0.940  13.389
C     22.912   1.145  18.817
C     33.821   0.806  30.279
    6
    6
C      1.484   1.481  -0.765
C      9.209   1.013   5.632
C     14.333  -0.152  11.623
C     18.258   1.063  13.355
C     22.933   1.281  18.862
C     33.814   0.813  30.227
    6
    6
C      1.490   1.409  -0.757
C      9.303   1.103   5.594
C     14.482  -0.077  11.546
C     18.352   1.108  13.260
C     22.926   1.429  18.901
C     33.826   0.792  30.195
    6
    6
C      1.455   1.347  -0.796
C      9.375   1.157   5.546
C     14.590   0.007  11.481
C     18.508   1.142  13.239
C     22.997   1.561  18.922
C     33.840   0.782  30.177
    6
    6
C      1.422   1.346  -0.834
C      9.407   1.170   5.536
C     14.680   0.065  11.472
C     18.558   1.173  13.238
C     23.045   1.643  18.938
C     33.860   0.777  30.182
    6
    6
C      1.422   1.398  -0.847
C      9.387   1.149   5.533
C     14.673   0.053  11.475
C     18.575   1.205  13.257
C     23.051   1.646  18.938
C     33.885   0.780  30.207
    6
    6
C      1.399   1.468  -0.874
C      9.374   1.116   5.520
C     14.701   0.068  11.476
C     18.615   1.209  13.258
C     23.072   1.665  18.937
C     33.921   0.772  30.250
    6
    6
C      1.377   1.531  -0.897
C      9.373   1.108   5.502
C     14.746   0.067  11.476
C     18.695   1.246  13.234
C     23.087   1.683  18.931
C     33.945   0.747  30.289
    6
    6
C      1.359   1.546  -0.907
C      9.373   1.131   5.488
C     14.825   0.042  11.462
C     18.746   1.216  13.209
C     23.104   1.700  18.943
C     33.956   0.721  30.315
    6
    6
C      1.397   1.542  -0.917
C      9.387   1.175   5.457
C     14.883  -0.005  11.438
C     18.810   1.225  13.211
C     23.130   1.715  18.970
C     33.946   0.694  30.334
    6
    6
C      1.513   1.539  -0.925
C      9.415   1.238   5.424
C     14.928   0.027  11.385
C     18.840   1.285  13.208
C     23.148   1.714  18.998
C     33.904   0.657  30.348
    6
    6
C      1.598   1.536  -0.933
C      9.446   1.280   5.415
C     14.950   0.077  11.334
C     18.832   1.302  13.204
C     23.145   1.713  19.010
C     33.873   0.640  30.354
    6
    6
C      1.603   1.527  -0.929
C      9.462   1.290   5.416
C     14.949   0.081  11.332
C     18.835   1.319  13.199
C     23.125   1.710  18.996
C     33.859   0.653  30.359
    6
    6
C      1.619   1.527  -0.922
C      9.468   1.309   5.409
C     14.938   0.134  11.337
C     18.842   1.338  13.176
C     23.110   1.690  18.979
C     33.817   0.667  30.381
    6
    6
C      1.643   1.526  -0.906
C      9.464   1.340   5.394
C     14.937   0.179  11.321
C     18.859   1.365  13.165
C     23.102   1.671  18.966
C     33.778   0.677  30.404
    6
    6
C      1.672   1.516  -0.874
C      9.450   1.378   5.375
C     14.952   0.201  11.302
C     18.874   1.375  13.153
C     23.097   1.658  18.965
C     33.750   0.693  30.425
    6
    6
C      1.715   1.511  -0.827
C      9.443   1.426   5.370
C     14.978   0.227  11.262
C     18.903   1.404  13.136
C     23.095   1.646  18.973
C     33.718   0.718  30.445
    6
    6
C      1.749   1.509  -0.792
C      9.434   1.488   5.360
C     15.027   0.298  11.205
C     18.948   1.449  13.100
C     23.099   1.640  18.978
C     33.683   0.739  30.470
    6
    6
C      1.773   1.486  -0.770
C      9.434   1.533   5.359
C     15.048   0.350  11.179
C     18.960   1.465  13.047
C     23.109   1.648  18.987
C     33.662   0.749  30.486
    6
    6
C      1.764   1.480  -0.782
C      9.442   1.537   5.367
C     15.047   0.323  11.193
C     18.987   1.504  13.045
C     23.117   1.654  18.983
C     33.662   0.753  30.487
    6
    6
C      1.745   1.448  -0.798
C      9.463   1.537   5.374
C     15.076   0.320  11.203
C     19.022   1.525  13.033
C     23.134   1.663  18.978
C     33.661   0.756  30.489
    6
    6
C      1.731   1.405  -0.820
C      9.485   1.538   5.384
C     15.106   0.331  11.201
C     19.050   1.534  13.013
C     23.162   1.672  18.974
C     33.655   0.757  30.492
    6
    6
C      1.732   1.366  -0.838
C      9.503   1.547   5.388
C     15.121   0.337  11.197
C     19.082   1.557  12.999
C     23.204   1.681  18.976
C     33.646   0.761  30.497
    6
    6
C      1.740   1.318  -0.844
C      9.517   1.569   5.383
C     15.137   0.344  11.202
C     19.114   1.576  12.991
C     23.260   1.697  18.982
C     33.635   0.765  30.502
    6
    6
C      1.756   1.264  -0.855
C      9.524   1.603   5.370
C     15.163   0.395  11.178
C     19.135   1.600  12.985
C     23.313   1.714  18.982
C     33.618   0.766  30.501
    6
    6
C      1.771   1.234  -0.866
C      9.530   1.638   5.352
C     15.168   0.450  11.158
C     19.147   1.620  12.969
C     23.331   1.722  18.963
C     33.601   0.757  30.500
    6
    6
C      1.759   1.242  -0.856
C      9.537   1.642   5.344
C     15.164   0.446  11.159
C     19.153   1.627  12.964
C     23.315   1.721  18.960
C     33.603   0.757  30.499
    6
    6
C      1.742   1.253  -0.836
C      9.551   1.654   5.327
C     15.159   0.473  11.151
C     19.145   1.630  12.952
C     23.280   1.715  18.944
C     33.607   0.759  30.496
    6
    6
C      1.728   1.251  -0.822
C      9.564   1.669   5.308
C     15.156   0.515  11.136
C     19.132   1.631  12.958
C     23.261   1.703  18.938
C     33.611   0.770  30.491
    6
    6
C      1.720   1.250  -0.813
C      9.576   1.682   5.290
C     15.150   0.544  11.128
C     19.124   1.635  12.967
C     23.253   1.691  18.942
C     33.610   0.775  30.489
    6
    6
C      1.711   1.247  -0.804
C      9.593   1.700   5.266
C     15.149   0.573  11.120
C     19.117   1.646  12.984
C     23.244   1.676  18.952
C     33.606   0.778  30.484
    6
    6
C      1.702   1.247  -0.799
C      9.615   1.722   5.243
C     15.159   0.605  11.110
C     19.120   1.653  13.006
C     23.230   1.659  18.966
C     33.604   0.784  30.479
    6
    6
C      1.703   1.252  -0.800
C      9.636   1.745   5.228
C     15.176   0.636  11.103
C     19.129   1.660  13.015
C     23.214   1.644  18.975
C     33.608   0.800  30.476
    6
    6
C      1.705   1.255  -0.801
C      9.644   1.758   5.223
C     15.179   0.644  11.104
C     19.138   1.666  13.015
C     23.211   1.642  18.981
C     33.610   0.808  30.475
    6
    6
C      1.709   1.256  -0.802
C      9.642   1.764   5.229
C     15.178   0.638  11.110
C     19.142   1.667  13.011
C     23.217   1.646  18.981
C     33.608   0.810  30.472
    6
    6
C      1.716   1.258  -0.805
C      9.640   1.774   5.237
C     15.175   0.637  11.115
C     19.145   1.666  13.004
C     23.221   1.649  18.979
C     33.607   0.815  30.469
    6
    6
C      1.727   1.259  -0.810
C      9.634   1.798   5.250
C     15.172   0.634  11.121
C     19.147   1.662  12.996
C     23.223   1.653  18.976
C     33.607   0.826  30.465
